18

Co     -0.27792856099112    0.48255401825954    0.12105228228510
 H      0.33884931660526   -0.46178524175474   -0.79622820967723
 C     -1.33232958208173    1.44101191725738    1.15355196395245
 O     -2.04430303982470    2.06260207550730    1.83398912096581
 C     -0.35273694360545    1.40345427196126   -1.37186847823522
 O     -0.32795553138953    1.97777318761438   -2.38870402303028
 C     -0.89685548643278   -1.12575129195390    0.35977127509902
 O     -1.23012175343997   -2.24012549772688    0.48109874936431
 C      2.01378249802197   -1.96886047125603    0.27410753826620
 O      2.94961120964895   -2.65189326408252    0.32034967093710
 C     -0.01478460593561   -1.29596327669985   -2.75637447556062
 C      0.81168675956432   -2.21319148666593   -2.23329491221863
 H      0.41405622319089   -0.41978520477845   -3.23943941878337
 H      0.43047653900875   -3.12725541685983   -1.78472337551260
 H      1.88766402510160   -2.11444049177531   -2.31965026400166
 H     -1.09113409044610   -1.37645312090515   -2.82651049751132
 H      1.70989112989999    0.00019711698581   -1.27529295018797
 H      2.34809722095368    0.12543128796984   -1.61763693354163