eq0            -599.609236898601   -599.609236898601
 OpenBabel04152118483D

 24 24  0  0  0  0  0  0  0  0999 V2000
    0.8878   -1.3542    1.8994 C   0  0  0  0  0  0  0  0  0  0  0  0
    1.9009   -0.5280    2.3859 C   0  0  0  0  0  0  0  0  0  0  0  0
    1.9545    0.8157    1.9535 C   0  0  0  0  0  0  0  0  0  0  0  0
    1.0342    1.3056    1.0289 C   0  0  0  0  0  0  0  0  0  0  0  0
    0.0276    0.4606    0.5009 C   0  0  0  0  0  0  0  0  0  0  0  0
   -0.0551   -0.8779    0.9660 C   0  0  0  0  0  0  0  0  0  0  0  0
   -1.0772   -1.7353    0.4126 C   0  0  0  0  0  0  0  0  0  0  0  0
   -1.9153   -1.2721   -0.5417 C   0  0  0  0  0  0  0  0  0  0  0  0
   -1.8075    0.0879   -1.0751 C   0  0  0  0  0  0  0  0  0  0  0  0
    0.8176   -2.3855    2.2249 H   0  0  0  0  0  0  0  0  0  0  0  0
    2.6212   -0.9023    3.1001 H   0  0  0  0  0  0  0  0  0  0  0  0
    2.7230    1.4763    2.3328 H   0  0  0  0  0  0  0  0  0  0  0  0
    1.1199    2.3248    0.6861 H   0  0  0  0  0  0  0  0  0  0  0  0
   -1.1469   -2.7564    0.7695 H   0  0  0  0  0  0  0  0  0  0  0  0
   -2.6831   -1.8842   -0.9932 H   0  0  0  0  0  0  0  0  0  0  0  0
   -2.5362    0.5066   -2.0030 O   0  0  0  0  0  0  0  0  0  0  0  0
   -0.8271    0.9058   -0.4919 N   0  0  0  0  0  0  0  0  0  0  0  0
   -0.5301    2.1784   -1.1567 C   0  0  0  0  0  0  0  0  0  0  0  0
   -0.6560    3.0182   -0.4690 H   0  0  0  0  0  0  0  0  0  0  0  0
    0.4945    2.1238   -1.5387 H   0  0  0  0  0  0  0  0  0  0  0  0
   -1.2282    2.2858   -1.9833 H   0  0  0  0  0  0  0  0  0  0  0  0
    1.7962   -0.1024   -1.8462 O   0  0  0  0  0  0  0  0  0  0  0  0
    1.5803   -0.0402   -2.7799 H   0  0  0  0  0  0  0  0  0  0  0  0
    2.2763   -0.4821   -0.3383 Li  0  0  0  0  0  0  0  0  0  0  0  0
  1 10  1  0  0  0  0
  1  2  1  0  0  0  0
  2 11  1  0  0  0  0
  3 12  1  0  0  0  0
  3  2  2  0  0  0  0
  4  3  1  0  0  0  0
  5  6  1  0  0  0  0
  5  4  2  0  0  0  0
  6  1  2  0  0  0  0
  7 14  1  0  0  0  0
  7  6  1  0  0  0  0
  8  7  2  0  0  0  0
  9  8  1  0  0  0  0
  9 17  1  0  0  0  0
 13  4  1  0  0  0  0
 15  8  1  0  0  0  0
 16  9  2  0  0  0  0
 17  5  1  0  0  0  0
 18 17  1  0  0  0  0
 18 19  1  0  0  0  0
 20 18  1  0  0  0  0
 21 18  1  0  0  0  0
 22 24  1  0  0  0  0
 23 22  1  0  0  0  0
M  END
