
 OpenBabel04162113583D

 18  0  0  0  0  0  0  0  0  0999 V2000
   -0.5252    0.9119    0.2288 Co  0  0  0  0  0  0  0  0  0  0  0  0
    0.6403   -0.8726   -1.5047 H   0  0  0  0  0 15  0  0  0  0  0  0
   -2.5177    2.7231    2.1799 C   0  0  0  0  0 15  0  0  0  0  0  0
   -3.8632    3.8978    3.4657 O   0  0  0  0  0 15  0  0  0  0  0  0
   -0.6666    2.6521   -2.5925 C   0  0  0  0  0 15  0  0  0  0  0  0
   -0.6197    3.7374   -4.5140 O   0  0  0  0  0 15  0  0  0  0  0  0
   -1.6948   -2.1274    0.6799 C   0  0  0  0  0 15  0  0  0  0  0  0
   -2.3246   -4.2332    0.9091 O   0  0  0  0  0 15  0  0  0  0  0  0
    3.8055   -3.7206    0.5180 C   0  0  0  0  0 15  0  0  0  0  0  0
    5.5740   -5.0114    0.6054 O   0  0  0  0  0 15  0  0  0  0  0  0
   -0.0279   -2.4490   -5.2088 C   0  0  0  0  0 15  0  0  0  0  0  0
    1.5339   -4.1823   -4.2203 C   0  0  0  0  0 15  0  0  0  0  0  0
    0.7825   -0.7933   -6.1217 H   0  0  0  0  0 15  0  0  0  0  0  0
    0.8135   -5.9097   -3.3726 H   0  0  0  0  0 15  0  0  0  0  0  0
    3.5672   -3.9957   -4.3835 H   0  0  0  0  0 15  0  0  0  0  0  0
   -2.0619   -2.6011   -5.3413 H   0  0  0  0  0 15  0  0  0  0  0  0
    3.2312    0.0004   -2.4100 H   0  0  0  0  0 15  0  0  0  0  0  0
    4.4373    0.2370   -3.0569 H   0  0  0  0  0 15  0  0  0  0  0  0
M  END
